Circuit: * SPICE3 file created from fulladder.ext - technology: scmos

WARNING: Node NAND1_2/W_N21_9# is floating.
WARNING: Node NAND1_1/W_N21_9# is floating.
WARNING: Node SUM is floating.
WARNING: Node NAND1_0/W_N21_9# is floating.
WARNING: Node XOR1_1/W_N20_N2# is floating.
WARNING: Node XOR1_1/W_7_N2# is floating.
WARNING: Node XOR1_1/W_46_11# is floating.
WARNING: Node XOR1_1/W_46_N34# is floating.
WARNING: Node XOR1_0/W_N20_N2# is floating.
WARNING: Node XOR1_0/W_7_N2# is floating.
WARNING: Node XOR1_0/W_46_11# is floating.
WARNING: Node XOR1_0/W_46_N34# is floating.

WARNING: Less than two connections to node CIN.  This node is used by VCIN.
Instance "m1027": Length shorter than recommended for a level 1 MOSFET.
Instance "m1027": Width narrower than recommended for a level 1 MOSFET.
Instance "m1025": Length shorter than recommended for a level 1 MOSFET.
Instance "m1025": Width narrower than recommended for a level 1 MOSFET.
Instance "m1024": Length shorter than recommended for a level 1 MOSFET.
Instance "m1024": Width narrower than recommended for a level 1 MOSFET.
Instance "m1023": Length shorter than recommended for a level 1 MOSFET.
Instance "m1023": Width narrower than recommended for a level 1 MOSFET.
Instance "m1019": Length shorter than recommended for a level 1 MOSFET.
Instance "m1019": Width narrower than recommended for a level 1 MOSFET.
Instance "m1017": Length shorter than recommended for a level 1 MOSFET.
Instance "m1017": Width narrower than recommended for a level 1 MOSFET.
Instance "m1016": Length shorter than recommended for a level 1 MOSFET.
Instance "m1016": Width narrower than recommended for a level 1 MOSFET.
Instance "m1015": Length shorter than recommended for a level 1 MOSFET.
Instance "m1015": Width narrower than recommended for a level 1 MOSFET.
Instance "m1011": Length shorter than recommended for a level 1 MOSFET.
Instance "m1011": Width narrower than recommended for a level 1 MOSFET.
Instance "m1010": Length shorter than recommended for a level 1 MOSFET.
Instance "m1010": Width narrower than recommended for a level 1 MOSFET.
Instance "m1007": Length shorter than recommended for a level 1 MOSFET.
Instance "m1007": Width narrower than recommended for a level 1 MOSFET.
Instance "m1006": Length shorter than recommended for a level 1 MOSFET.
Instance "m1006": Width narrower than recommended for a level 1 MOSFET.
Instance "m1003": Length shorter than recommended for a level 1 MOSFET.
Instance "m1003": Width narrower than recommended for a level 1 MOSFET.
Instance "m1002": Length shorter than recommended for a level 1 MOSFET.
Instance "m1002": Width narrower than recommended for a level 1 MOSFET.
Instance "m1026": Length shorter than recommended for a level 1 MOSFET.
Instance "m1026": Width narrower than recommended for a level 1 MOSFET.
Instance "m1022": Length shorter than recommended for a level 1 MOSFET.
Instance "m1022": Width narrower than recommended for a level 1 MOSFET.
Instance "m1021": Length shorter than recommended for a level 1 MOSFET.
Instance "m1021": Width narrower than recommended for a level 1 MOSFET.
Instance "m1020": Length shorter than recommended for a level 1 MOSFET.
Instance "m1020": Width narrower than recommended for a level 1 MOSFET.
Instance "m1018": Length shorter than recommended for a level 1 MOSFET.
Instance "m1018": Width narrower than recommended for a level 1 MOSFET.
Instance "m1014": Length shorter than recommended for a level 1 MOSFET.
Instance "m1014": Width narrower than recommended for a level 1 MOSFET.
Instance "m1013": Length shorter than recommended for a level 1 MOSFET.
Instance "m1013": Width narrower than recommended for a level 1 MOSFET.
Instance "m1012": Length shorter than recommended for a level 1 MOSFET.
Instance "m1012": Width narrower than recommended for a level 1 MOSFET.
Instance "m1009": Length shorter than recommended for a level 1 MOSFET.
Instance "m1009": Width narrower than recommended for a level 1 MOSFET.
Instance "m1008": Length shorter than recommended for a level 1 MOSFET.
Instance "m1008": Width narrower than recommended for a level 1 MOSFET.
Instance "m1005": Length shorter than recommended for a level 1 MOSFET.
Instance "m1005": Width narrower than recommended for a level 1 MOSFET.
Instance "m1004": Length shorter than recommended for a level 1 MOSFET.
Instance "m1004": Width narrower than recommended for a level 1 MOSFET.
Instance "m1001": Length shorter than recommended for a level 1 MOSFET.
Instance "m1001": Width narrower than recommended for a level 1 MOSFET.
Instance "m1000": Length shorter than recommended for a level 1 MOSFET.
Instance "m1000": Width narrower than recommended for a level 1 MOSFET.
Direct Newton iteration for .op point succeeded.

Date: Thu Apr 14 23:14:59 2016
Total elapsed time: 0.201 seconds.

tnom = 27
temp = 27
method = modified trap
totiter = 3606
traniter = 3576
tranpoints = 1224
accept = 1178
rejected = 46
matrix size = 39
fillins = 2
solver = Normal
Thread vector: 46.1/32.5[2] 18.1/13.0[2] 7.8/6.3[2] 0.9/4.6[1]  2592/500
Matrix Compiler1: 5.47 KB object code size  4.5/2.1/[1.0]
Matrix Compiler2: 5.39 KB object code size  1.9/2.0/[2.0]


