Circuit: * SPICE3 file created from nand1.ext - technology: scmos

WARNING: Node W_N21_9# is floating.

Instance "m1003": Length shorter than recommended for a level 1 MOSFET.
Instance "m1003": Width narrower than recommended for a level 1 MOSFET.
Instance "m1002": Length shorter than recommended for a level 1 MOSFET.
Instance "m1002": Width narrower than recommended for a level 1 MOSFET.
Instance "m1001": Length shorter than recommended for a level 1 MOSFET.
Instance "m1001": Width narrower than recommended for a level 1 MOSFET.
Instance "m1000": Length shorter than recommended for a level 1 MOSFET.
Instance "m1000": Width narrower than recommended for a level 1 MOSFET.
Direct Newton iteration for .op point succeeded.

Date: Thu Apr 21 17:26:33 2016
Total elapsed time: 0.050 seconds.

tnom = 27
temp = 27
method = modified trap
totiter = 2275
traniter = 2251
tranpoints = 1083
accept = 1075
rejected = 8
matrix size = 11
fillins = 0
solver = Normal
Matrix Compiler1: 486 bytes object code size  0.2/0.1/[0.0]
Matrix Compiler2: off  [0.0]/0.2/0.1


