Circuit: * SPICE3 file created from xor1.ext - technology: scmos

WARNING: Node W_N20_N2# is floating.
WARNING: Node W_7_N2# is floating.
WARNING: Node W_46_11# is floating.
WARNING: Node W_46_N34# is floating.

Instance "m1007": Length shorter than recommended for a level 1 MOSFET.
Instance "m1007": Width narrower than recommended for a level 1 MOSFET.
Instance "m1005": Length shorter than recommended for a level 1 MOSFET.
Instance "m1005": Width narrower than recommended for a level 1 MOSFET.
Instance "m1004": Length shorter than recommended for a level 1 MOSFET.
Instance "m1004": Width narrower than recommended for a level 1 MOSFET.
Instance "m1003": Length shorter than recommended for a level 1 MOSFET.
Instance "m1003": Width narrower than recommended for a level 1 MOSFET.
Instance "m1006": Length shorter than recommended for a level 1 MOSFET.
Instance "m1006": Width narrower than recommended for a level 1 MOSFET.
Instance "m1002": Length shorter than recommended for a level 1 MOSFET.
Instance "m1002": Width narrower than recommended for a level 1 MOSFET.
Instance "m1001": Length shorter than recommended for a level 1 MOSFET.
Instance "m1001": Width narrower than recommended for a level 1 MOSFET.
Instance "m1000": Length shorter than recommended for a level 1 MOSFET.
Instance "m1000": Width narrower than recommended for a level 1 MOSFET.
Direct Newton iteration for .op point succeeded.

Date: Thu Apr 21 16:58:16 2016
Total elapsed time: 0.094 seconds.

tnom = 27
temp = 27
method = modified trap
totiter = 2435
traniter = 2405
tranpoints = 1138
accept = 1116
rejected = 22
matrix size = 15
fillins = 0
solver = Normal
Matrix Compiler1: 1.05 KB object code size  0.8/0.5/[0.1]
Matrix Compiler2: off  [0.5]/0.7/0.7


